
**** 07/24/17 13:22:43 ******* PSpice Lite (March 2016) ******* ID# 10813 ****

 ** Profile: "SCHEMATIC1-hee"  [ Z:\ans-PSpiceFiles\SCHEMATIC1\hee.sim ] 


 ****     CIRCUIT DESCRIPTION


******************************************************************************




** Creating circuit file "hee.cir" 
** WARNING: THIS AUTOMATICALLY GENERATED FILE MAY BE OVERWRITTEN BY SUBSEQUENT SIMULATIONS

*Libraries: 
* Profile Libraries :
* Local Libraries :
* From [PSPICE NETLIST] section of C:\Users\Joshua Gold\AppData\Roaming\SPB_Data\cdssetup\OrCAD_PSpice\17.2.0\PSpice.ini file:
.lib "nomd.lib" 

*Analysis directives: 
.TRAN  0 1000ns 0 1n 
.OPTIONS ADVCONV
.PROBE64 V(alias(*)) I(alias(*)) W(alias(*)) D(alias(*)) NOISE(alias(*)) 
.INC "..\SCHEMATIC1.net" 



**** INCLUDING SCHEMATIC1.net ****
* source ANS
V_V1         0 0  AC 25
+SIN 0 36 60 0 0 0

**** RESUMING hee.cir ****
.END

WARNING(ORPSIM-15189): All terminals are grounded in this circuit
