
**** 07/17/17 01:54:23 ******* PSpice Lite (March 2016) ******* ID# 10813 ****

 ** Profile: "SCHEMATIC1-assign7"  [ Z:\assign7-PSpiceFiles\SCHEMATIC1\assign7.sim ] 


 ****     CIRCUIT DESCRIPTION


******************************************************************************




** Creating circuit file "assign7.cir" 
** WARNING: THIS AUTOMATICALLY GENERATED FILE MAY BE OVERWRITTEN BY SUBSEQUENT SIMULATIONS

*Libraries: 
* Profile Libraries :
* Local Libraries :
* From [PSPICE NETLIST] section of C:\Users\Joshua Gold\AppData\Roaming\SPB_Data\cdssetup\OrCAD_PSpice\17.2.0\PSpice.ini file:
.lib "nomd.lib" 

*Analysis directives: 
.DC LIN V1 -1 1 .01 
.OPTIONS ADVCONV
.PROBE64 V(alias(*)) I(alias(*)) W(alias(*)) D(alias(*)) NOISE(alias(*)) 
.INC "..\SCHEMATIC1.net" 



**** INCLUDING SCHEMATIC1.net ****
* source ASSIGN7
M_M1         N04321 N04328 N04225 N04225 MbreakP           
M_M2         N04225 N04328 0 0 MbreakN           
V_V2         N04328 0  AC 0
+SIN 0 0.5 100Hz 0 0 0
R_R4         0 N04225  10k TC=0,0 

**** RESUMING assign7.cir ****
.END


ERROR(ORPSIM-15090): DC device V1 is undefined

ERROR(ORPSIM-15141): Less than 2 connections at node N04321.
