
**** 07/17/17 01:56:13 ******* PSpice Lite (March 2016) ******* ID# 10813 ****

 ** Profile: "SCHEMATIC1-assign7"  [ Z:\assign7-PSpiceFiles\SCHEMATIC1\assign7.sim ] 


 ****     CIRCUIT DESCRIPTION


******************************************************************************




** Creating circuit file "assign7.cir" 
** WARNING: THIS AUTOMATICALLY GENERATED FILE MAY BE OVERWRITTEN BY SUBSEQUENT SIMULATIONS

*Libraries: 
* Profile Libraries :
* Local Libraries :
* From [PSPICE NETLIST] section of C:\Users\Joshua Gold\AppData\Roaming\SPB_Data\cdssetup\OrCAD_PSpice\17.2.0\PSpice.ini file:
.lib "nomd.lib" 

*Analysis directives: 
.DC LIN V_V1 -1 1 .01 
.OPTIONS ADVCONV
.PROBE64 V(alias(*)) I(alias(*)) W(alias(*)) D(alias(*)) NOISE(alias(*)) 
.INC "..\SCHEMATIC1.net" 



**** INCLUDING SCHEMATIC1.net ****
* source ASSIGN7
M_M1         N04321 N04328 N04225 N04225 MbreakP           
M_M2         N04225 N04328 0 0 MbreakN           
V_V1         N04321 0 12
V_V2         N04328 0  AC 0
+SIN 0 0.5 100Hz 0 0 0
R_R4         0 N04225  10k TC=0,0 

**** RESUMING assign7.cir ****
.END

**** 07/17/17 01:56:13 ******* PSpice Lite (March 2016) ******* ID# 10813 ****

 ** Profile: "SCHEMATIC1-assign7"  [ Z:\assign7-PSpiceFiles\SCHEMATIC1\assign7.sim ] 


 ****     MOSFET MODEL PARAMETERS


******************************************************************************




               MbreakP         MbreakN         
               PMOS            NMOS            
       LEVEL    1               1            
           L  100.000000E-06  100.000000E-06 
           W  100.000000E-06  100.000000E-06 
         VTO    0               0            
          KP   20.000000E-06   20.000000E-06 
       GAMMA    0               0            
         PHI     .6              .6          
      LAMBDA    0               0            
          IS   10.000000E-15   10.000000E-15 
          JS    0               0            
          PB     .8              .8          
        PBSW     .8              .8          
          CJ    0               0            
        CJSW    0               0            
        CGSO    0               0            
        CGDO    0               0            
        CGBO    0               0            
         TOX    0               0            
          XJ    0               0            
       UCRIT   10.000000E+03   10.000000E+03 
      DIOMOD    1               1            
         VFB    0               0            
        LETA    0               0            
        WETA    0               0            
          U0    0               0            
        TEMP    0               0            
         VDD    5               5            
       XPART    0               0            



          JOB CONCLUDED

**** 07/17/17 01:56:13 ******* PSpice Lite (March 2016) ******* ID# 10813 ****

 ** Profile: "SCHEMATIC1-assign7"  [ Z:\assign7-PSpiceFiles\SCHEMATIC1\assign7.sim ] 


 ****     JOB STATISTICS SUMMARY


******************************************************************************



  Total job time (using Solver 1)   =         .13
